   24
GLUCOSE, FINAL HEAT OF FORMATION =  -299.233668
 C    -1.214122    -0.553885    -1.079978
 C    -1.214122    -0.553885     0.470022
 C     0.261483    -0.553885     0.944461
 C     0.948273     0.718098     0.385103
 O     0.854770     0.740335    -1.030988
 C     2.462498     0.739859     0.715480
 C    -0.465364     0.707198    -1.566796
 O    -0.2749     0.699248    -2.940175
 H    -1.045899     1.640518    -1.335925
 H    -0.719391    -1.483302    -1.470474
 O    -2.534332    -0.467204    -1.574750
 H    -3.052275    -1.126786    -1.090802
 H    -1.761364     0.352337     0.851823
 O    -1.951234    -1.649617     0.963387
 H    -1.385128    -2.430797     0.919657
 H     0.790607    -1.476921     0.577810
 O     0.363577    -0.619816     2.348789
 H    -0.167836     0.098453     2.716805
 H     0.454764     1.631579     0.815724
 H     0.565016     0.140188    -3.105504
 H     2.961679     1.563181     0.140094
 H     2.920990    -0.246791     0.449076
 O     2.658488     1.048668     274697
 H     2.322793     0.304418     2.5942